
     RDKit          3D

 35 37  0  0  0  0  0  0  0  0999 V2000
   -4.4995   -1.6498    0.6198 C   0  0  0  0  0  0  0  0  0  0  0  0
   -3.0306   -1.4022    0.3963 C   0  0  0  0  0  0  0  0  0  0  0  0
   -2.5089   -0.1113    0.1253 C   0  0  0  0  0  0  0  0  0  0  0  0
   -1.1185    0.0563    0.0022 C   0  0  0  0  0  0  0  0  0  0  0  0
   -0.2461   -1.0388    0.1110 C   0  0  0  0  0  0  0  0  0  0  0  0
   -0.7779   -2.3175    0.3067 C   0  0  0  0  0  0  0  0  0  0  0  0
   -2.1532   -2.4971    0.4547 C   0  0  0  0  0  0  0  0  0  0  0  0
    1.1743   -0.8843   -0.0498 N   0  0  0  0  0  0  0  0  0  0  0  0
    1.9219    0.2316    0.4707 C   0  0  0  0  0  0  0  0  0  0  0  0
    1.3467    1.0922    1.1919 O   0  0  0  0  0  0  0  0  0  0  0  0
    3.3680    0.3909    0.1827 C   0  0  0  0  0  0  0  0  0  0  0  0
    4.2026   -0.7232   -0.0297 C   0  0  0  0  0  0  0  0  0  0  0  0
    5.5645   -0.5473   -0.2945 C   0  0  0  0  0  0  0  0  0  0  0  0
    6.1108    0.7381   -0.3440 C   0  0  0  0  0  0  0  0  0  0  0  0
    5.2947    1.8502   -0.1214 C   0  0  0  0  0  0  0  0  0  0  0  0
    3.9329    1.6792    0.1449 C   0  0  0  0  0  0  0  0  0  0  0  0
    7.8197    0.9544   -0.6755 Cl  0  0  0  0  0  0  0  0  0  0  0  0
   -3.3705    1.0825   -0.0292 C   0  0  0  0  0  0  0  0  0  0  0  0
   -3.0569    2.2953    0.4695 N   0  0  0  0  0  0  0  0  0  0  0  0
   -4.0833    3.0577    0.0360 C   0  0  0  0  0  0  0  0  0  0  0  0
   -4.9670    2.3593   -0.7024 N   0  0  0  0  0  0  0  0  0  0  0  0
   -4.5107    1.1218   -0.7406 N   0  0  0  0  0  0  0  0  0  0  0  0
   -4.6550   -2.5393    1.2671 H   0  0  0  0  0  0  0  0  0  0  0  0
   -4.9759   -0.7887    1.1332 H   0  0  0  0  0  0  0  0  0  0  0  0
   -5.0003   -1.8345   -0.3528 H   0  0  0  0  0  0  0  0  0  0  0  0
   -0.7206    1.0368   -0.2272 H   0  0  0  0  0  0  0  0  0  0  0  0
   -0.1207   -3.1763    0.3639 H   0  0  0  0  0  0  0  0  0  0  0  0
   -2.5340   -3.4961    0.6298 H   0  0  0  0  0  0  0  0  0  0  0  0
    1.6813   -1.6594   -0.5302 H   0  0  0  0  0  0  0  0  0  0  0  0
    3.8197   -1.7320    0.0366 H   0  0  0  0  0  0  0  0  0  0  0  0
    6.1958   -1.4124   -0.4534 H   0  0  0  0  0  0  0  0  0  0  0  0
    5.7137    2.8479   -0.1544 H   0  0  0  0  0  0  0  0  0  0  0  0
    3.3179    2.5555    0.3092 H   0  0  0  0  0  0  0  0  0  0  0  0
   -4.1790    4.1140    0.2479 H   0  0  0  0  0  0  0  0  0  0  0  0
   -4.9561    0.3465   -1.2781 H   0  0  0  0  0  0  0  0  0  0  0  0
  1  2  1  0
  2  3  2  0
  3  4  1  0
  4  5  2  0
  5  6  1  0
  6  7  2  0
  5  8  1  0
  8  9  1  0
  9 10  2  0
  9 11  1  0
 11 12  2  0
 12 13  1  0
 13 14  2  0
 14 15  1  0
 15 16  2  0
 14 17  1  0
  3 18  1  0
 18 19  2  0
 19 20  1  0
 20 21  2  0
 21 22  1  0
  7  2  1  0
 16 11  1  0
 22 18  1  0
  1 23  1  0
  1 24  1  0
  1 25  1  0
  4 26  1  0
  6 27  1  0
  7 28  1  0
  8 29  1  0
 12 30  1  0
 13 31  1  0
 15 32  1  0
 16 33  1  0
 20 34  1  0
 22 35  1  0
M  END
